LTspice 24.0.12 for Windows
Circuit: * C:\Users\Jakob\Documents\dev\GuitarPreAmp\lin_per_loudness_poti_sim.asc
Start Time: Tue Feb  3 12:51:33 2026
solver = Normal
Maximum thread count: 4



ERROR: Node NC_01 is floating and connected to current source I1

Direct Newton iteration for .op point succeeded.





















































































































































































































































































































































































































































































































































































































































































































































































































































































































































































































































































































































































































































































































































































































































































































































































































































































































































































































































































































































































































































































































































































































































































































































































































































































































































































































































































































































































































































































































































































































































































































tnom = 27
temp = 27
method = modified trap
Total elapsed time: 10.913 seconds.

