LTspice 24.0.12 for Windows
Circuit: * C:\Users\Jakob\Documents\dev\GuitarPreAmp\simulation\opamp_audio_pipeline.asc
Start Time: Sat Feb  7 16:33:49 2026
solver = Normal
Maximum thread count: 4
tnom = 27
temp = 27
method = modified trap
WARNING: Node N005 is floating.
WARNING: Node N036 is floating.
WARNING: Node N041 is floating.

WARNING: Less than two connections to node vadc.  This node is used by v5.
WARNING: Less than two connections to node n005.  This node is used by c14.
Direct Newton iteration failed to find .op point.  (Use ".option noopiter" to skip.)
Starting Gmin stepping
Gmin = 10
Gmin = 1.07374
vernier = 0.5
vernier = 0.25
vernier = 0.125
vernier = 0.0625
Gmin = 0.995033
vernier = 0.03125
vernier = 0.015625
vernier = 0.0078125
vernier = 0.00390625
vernier = 0.00195312
vernier = 0.000976562
Gmin = 1.00273
vernier = 0.000488281
Gmin = 0
Gmin stepping failed

Starting source stepping with srcstepmethod=0
Source Step = 3.0303%
vernier = 0.25
Source Step = 2.84091%
Source Step = 4.73485%
Source Step = 6.62879%
Source Step = 8.52273%
Source Step = 9.94318%
Source Step = 10.4167%
Source Step = 10.8902%
Source Step = 11.3636%
Source Step = 11.8371%
vernier = 0.0234375
Source Step = 12.3343%
Source Step = 13.0445%
Source Step = 13.7547%
Source Step = 14.465%
Source Step = 15.1752%
Source Step = 15.8854%
vernier = 0.0351562
Source Step = 16.9508%
Source Step = 18.0161%
Source Step = 19.0814%
Source Step = 20.1468%
Source Step = 21.2121%
vernier = 0.0527344
Source Step = 22.7569%
Source Step = 24.3549%
Source Step = 25.9529%
Source Step = 27.5509%
Source Step = 29.1489%
vernier = 0.0791016
Source Step = 31.3861%
Source Step = 33.7831%
Source Step = 36.1802%
Source Step = 38.5772%
Source Step = 40.9742%
vernier = 0.118652
Source Step = 44.2102%
Source Step = 47.8057%
Source Step = 50.008%
Source Step = 50.0754%
Source Step = 50.1315%
Source Step = 50.1877%
Source Step = 50.2439%
Source Step = 50.3001%
vernier = 0.00278091
Source Step = 50.3591%
Source Step = 50.4433%
Source Step = 50.5276%
Source Step = 50.6119%
Source Step = 50.6962%
Source Step = 50.7804%
vernier = 0.00417137
Source Step = 50.9068%
Source Step = 51.0332%
Source Step = 51.1596%
Source Step = 51.2861%
Source Step = 51.4125%
vernier = 0.00625706
Source Step = 51.5957%
Source Step = 51.7854%
Source Step = 51.975%
Source Step = 52.1646%
Source Step = 52.3542%
vernier = 0.00938559
Source Step = 52.6196%
Source Step = 52.904%
Source Step = 53.1884%
Source Step = 53.4729%
Source Step = 53.7573%
vernier = 0.0140784
Source Step = 54.1412%
Source Step = 54.5678%
Source Step = 54.9945%
Source Step = 55.4211%
Source Step = 55.8477%
vernier = 0.0211176
Source Step = 56.4023%
Source Step = 57.0422%
Source Step = 57.6822%
Source Step = 58.3221%
Source Step = 58.962%
vernier = 0.0316764
Source Step = 59.7619%
Source Step = 60.7218%
Source Step = 61.6817%
Source Step = 62.6416%
Source Step = 63.6015%
vernier = 0.0475145
Source Step = 64.7533%
Source Step = 66.1932%
Source Step = 67.633%
Source Step = 69.0728%
Source Step = 70.5127%
vernier = 0.0712718
Source Step = 72.1685%
Source Step = 74.3282%
Source Step = 76.488%
Source Step = 78.6477%
Source Step = 80.8075%
vernier = 0.106908
Source Step = 83.1832%
Source Step = 86.4228%
Source Step = 89.6625%
Source Step = 92.9021%
Source Step = 96.1417%
vernier = 0.160362
Source Step = 99.5433%
Source stepping succeeded in finding the operating point.

Heightened Def Con from 0.425188 to 0.425188
Total elapsed time: 543.802 seconds.

