LTspice 24.0.12 for Windows
Circuit: * C:\Users\Jakob\Documents\dev\GuitarPreAmp\simulation\pmos_en_vdd.asc
Start Time: Sun Feb  8 19:45:46 2026
solver = Normal
Maximum thread count: 4
tnom = 27
temp = 27
method = modified trap
WARNING: Specified period is not longer than the sum of Trise, Tfall, and Ton for v2.  Increasing period to 5
Direct Newton iteration for .op point succeeded.
Total elapsed time: 0.299 seconds.

