LTspice 24.0.12 for Windows
Circuit: * C:\Users\Jakob\Documents\dev\GuitarPreAmp\simulation\powersupply_opamp.asc
Start Time: Mon Feb  9 11:45:00 2026
solver = Normal
Maximum thread count: 4
tnom = 27
temp = 27
method = modified trap
Direct Newton iteration failed to find .op point.  (Use ".option noopiter" to skip.)
Starting Gmin stepping
Gmin = 10
Gmin = 1.07374
Gmin = 0.115292
Gmin = 0.0123794
Gmin = 0.00132923
Gmin = 0.000142725
Gmin = 1.5325e-05
Gmin = 1.6455e-06
Gmin = 1.76685e-07
Gmin = 1.89714e-08
Gmin = 2.03704e-09
Gmin = 2.18725e-10
Gmin = 2.34854e-11
Gmin = 2.52173e-12
Gmin = 2.70769e-13
Gmin = 0
Gmin stepping succeeded in finding the operating point.

Ignoring empty pin current: Ix(u1:8)
Ignoring empty pin current: Ix(u2:6)
Ignoring empty pin current: Ix(u2:7)
Ignoring empty pin current: Ix(u3:8)
Ignoring empty pin current: Ix(u6:7)
Ignoring empty pin current: Ix(u1:8)
Ignoring empty pin current: Ix(u2:6)
Ignoring empty pin current: Ix(u2:7)
Ignoring empty pin current: Ix(u3:8)
Ignoring empty pin current: Ix(u6:7)
Total elapsed time: 1879.596 seconds.

